21
Dibenzothiophene from PubChem 3D SDF
S 0.0000 -2.0752 0.0004
C 0.7257 0.3977 0.0004
C -0.7257 0.3977 0.0003
C 1.2467 -0.8971 0.0002
C -1.2467 -0.8972 0.0001
C 1.6452 1.4792 0.0002
C -1.6452 1.4792 0.0002
C 2.6356 -1.1373 -0.0002
C -2.6357 -1.1374 -0.0001
C 3.0230 1.2462 0.0000
C -3.0229 1.2463 -0.0001
C 3.5113 -0.0511 -0.0006
C -3.5113 -0.0510 -0.0006
H 1.2830 2.5046 0.0003
H -1.2830 2.5046 0.0003
H 3.0267 -2.1510 -0.0004
H -3.0268 -2.1510 -0.0003
H 3.7116 2.0862 -0.0001
H -3.7116 2.0863 -0.0003
H 4.5838 -0.2257 -0.0011
H -4.5838 -0.2256 -0.0009
