21
3023
S          0.00203       -1.84024        0.01328
C         -0.72940        0.63090        0.00206
C          0.72266        0.63448       -0.00492
C         -1.24656       -0.66450        0.01733
C          1.24553       -0.65904        0.01158
C         -1.65312        1.71007        0.00437
C          1.64158        1.71707       -0.01589
C         -2.63499       -0.90876        0.03566
C          2.63490       -0.89735        0.02518
C         -3.03089        1.47318        0.02735
C          3.02043        1.48648       -0.00102
C         -3.51529        0.17446        0.04323
C          3.51059        0.18980        0.02216
H         -1.28954        2.73441       -0.00598
H          1.27339        2.73970       -0.03194
H         -3.01631       -1.92613        0.04801
H          3.02099       -1.91284        0.04190
H         -3.72238        2.31235        0.03425
H          3.70833        2.32857       -0.00500
H         -4.58771       -0.00486        0.06365
H          4.58384        0.01539        0.03832
